Version 4
SHEET 1 1572 680
WIRE 880 -240 752 -240
WIRE 1072 -240 960 -240
WIRE 432 -144 304 -144
WIRE 576 -144 432 -144
WIRE 752 -144 752 -240
WIRE 752 -144 576 -144
WIRE 768 -144 752 -144
WIRE 1072 -144 1072 -240
WIRE 1072 -144 1056 -144
WIRE 576 -128 576 -144
WIRE 576 -48 576 -64
WIRE 1296 -48 1056 -48
WIRE 1424 -48 1296 -48
WIRE 1504 -48 1424 -48
WIRE 144 -32 -16 -32
WIRE 224 -32 144 -32
WIRE 304 -32 304 -64
WIRE 304 -32 224 -32
WIRE 1424 -32 1424 -48
WIRE 1504 -32 1504 -48
WIRE -16 -16 -16 -32
WIRE 144 16 144 -32
WIRE 304 16 304 -32
WIRE 672 48 656 48
WIRE 768 48 752 48
WIRE 1296 48 1296 32
WIRE 1296 48 1056 48
WIRE 1296 64 1296 48
WIRE 1424 64 1424 32
WIRE 1504 64 1504 48
WIRE -16 96 -16 64
WIRE 1120 144 1056 144
WIRE 1200 144 1120 144
WIRE 1120 160 1120 144
WIRE 1200 160 1200 144
WIRE 1296 160 1296 144
WIRE 432 192 432 -144
WIRE 432 192 304 192
WIRE 688 240 672 240
WIRE 768 240 752 240
WIRE 1072 240 1056 240
WIRE 1120 256 1120 224
WIRE 1200 256 1200 240
WIRE 144 272 -16 272
WIRE 224 272 144 272
WIRE 304 272 224 272
WIRE -16 288 -16 272
WIRE 912 304 912 288
WIRE 144 320 144 272
WIRE 304 320 304 272
WIRE -16 400 -16 368
FLAG 304 96 0
FLAG 144 96 0
FLAG 224 -32 d
FLAG -16 96 0
FLAG 912 304 0
FLAG 1296 160 0
FLAG 1424 64 0
FLAG 1504 64 0
FLAG 1120 256 0
FLAG 1200 256 0
FLAG 1072 240 0
FLAG 672 240 0
FLAG 656 48 0
FLAG 1504 -48 OUT
FLAG 576 -144 IN
FLAG 576 -48 0
FLAG 304 400 0
FLAG 144 400 0
FLAG 224 272 d
FLAG -16 400 0
SYMBOL bi 304 16 R0
SYMATTR InstName B1
SYMATTR Value I={Is}*(exp(v(d)/{n}/{Vth})-1)
SYMBOL current 144 16 R0
WINDOW 123 0 0 Left 0
WINDOW 39 0 0 Left 0
SYMATTR InstName I1
SYMATTR Value {IL}
SYMBOL res 288 -160 R0
SYMATTR InstName RS
SYMATTR Value {Rs}
SYMBOL res -32 -32 R0
SYMATTR InstName R1
SYMATTR Value {Rshunt}
SYMBOL PowerProducts\\LTC3105 912 48 R0
SYMATTR InstName U1
SYMBOL ind 864 -224 R270
WINDOW 0 32 56 VTop 2
WINDOW 3 5 56 VBottom 2
SYMATTR InstName L1
SYMATTR Value 10µ
SYMBOL res 1280 -64 R0
SYMATTR InstName R2
SYMATTR Value 1020K
SYMBOL res 1280 48 R0
SYMATTR InstName R3
SYMATTR Value 332K
SYMBOL cap 1408 -32 R0
SYMATTR InstName C1
SYMATTR Value 10µ
SYMBOL res 1488 -48 R0
SYMATTR InstName R4
SYMATTR Value 500
SYMBOL cap 1104 160 R0
SYMATTR InstName C2
SYMATTR Value 4.7µ
SYMBOL res 1184 144 R0
SYMATTR InstName R5
SYMATTR Value 350
SYMBOL cap 752 224 R90
WINDOW 0 0 32 VBottom 2
WINDOW 3 32 32 VTop 2
SYMATTR InstName C3
SYMATTR Value 1µ
SYMBOL res 768 32 R90
WINDOW 0 0 56 VBottom 2
WINDOW 3 32 56 VTop 2
SYMATTR InstName R6
SYMATTR Value 40.2K
SYMBOL cap 560 -128 R0
SYMATTR InstName C4
SYMATTR Value 10µ
SYMBOL bi 304 320 R0
SYMATTR InstName B2
SYMATTR Value I={Is}*(exp(v(d)/{n}/{Vth})-1)
SYMBOL current 144 320 R0
WINDOW 123 0 0 Left 0
WINDOW 39 0 0 Left 0
SYMATTR InstName I2
SYMATTR Value {IL}
SYMBOL res -32 272 R0
SYMATTR InstName R7
SYMATTR Value {Rshunt}
SYMBOL res 288 176 R0
SYMATTR InstName RS1
SYMATTR Value {Rs}
TEXT -24 -96 Left 0 !; .step dec param RL 1 1000 10
TEXT -24 -80 Left 0 !; .op
TEXT 136 -176 Left 0 !.param RS=0.5\n.param Rshunt=50k\n.param Is=10n\n.param n=1.2\n.param VTH=0.026\n.param IL=-400m
TEXT -24 -64 Left 0 !; .dc v1 0 1
TEXT 528 -224 Left 2 !.tran 5m startup
TEXT 136 -96 Left 0 !.ic V(d)=0
TEXT 136 -80 Left 0 !.ic V(in)=0
